68041
  -OEChem-10231822373D

 11 10  0     0  0  0  0  0  0999 V2000
    1.6530    0.6255    0.4022 F   0  0  0  0  0  0  0  0  0  0  0  0
   -1.6443    0.6421   -0.3890 F   0  0  0  0  0  0  0  0  0  0  0  0
   -0.0004   -0.9905   -0.0082 C   0  0  0  0  0  0  0  0  0  0  0  0
    1.1085   -0.1295   -0.5886 C   0  0  0  0  0  0  0  0  0  0  0  0
   -1.1168   -0.1477    0.5837 C   0  0  0  0  0  0  0  0  0  0  0  0
   -0.4065   -1.6264   -0.8022 H   0  0  0  0  0  0  0  0  0  0  0  0
    0.4097   -1.6377    0.7743 H   0  0  0  0  0  0  0  0  0  0  0  0
    1.9024   -0.7511   -1.0121 H   0  0  0  0  0  0  0  0  0  0  0  0
    0.7367    0.5449   -1.3656 H   0  0  0  0  0  0  0  0  0  0  0  0
   -0.7537    0.4999    1.3871 H   0  0  0  0  0  0  0  0  0  0  0  0
   -1.9179   -0.7807    0.9756 H   0  0  0  0  0  0  0  0  0  0  0  0
  1  4  1  0  0  0  0
  2  5  1  0  0  0  0
  3  4  1  0  0  0  0
  3  5  1  0  0  0  0
  3  6  1  0  0  0  0
  3  7  1  0  0  0  0
  4  8  1  0  0  0  0
  4  9  1  0  0  0  0
  5 10  1  0  0  0  0
  5 11  1  0  0  0  0
M  END
> <PUBCHEM_COMPOUND_CID>
68041

> <PUBCHEM_CONFORMER_RMSD>
0.4

> <PUBCHEM_CONFORMER_DIVERSEORDER>
1
6
4
2
3
5

> <PUBCHEM_MMFF94_PARTIAL_CHARGES>
4
1 -0.34
2 -0.34
4 0.34
5 0.34

> <PUBCHEM_EFFECTIVE_ROTOR_COUNT>
2

> <PUBCHEM_PHARMACOPHORE_FEATURES>
0

> <PUBCHEM_HEAVY_ATOM_COUNT>
5

> <PUBCHEM_ATOM_DEF_STEREO_COUNT>
0

> <PUBCHEM_ATOM_UDEF_STEREO_COUNT>
0

> <PUBCHEM_BOND_DEF_STEREO_COUNT>
0

> <PUBCHEM_BOND_UDEF_STEREO_COUNT>
0

> <PUBCHEM_ISOTOPIC_ATOM_COUNT>
0

> <PUBCHEM_COMPONENT_COUNT>
1

> <PUBCHEM_CACTVS_TAUTO_COUNT>
1

> <PUBCHEM_CONFORMER_ID>
000109C900000001

> <PUBCHEM_MMFF94_ENERGY>
-0.552

> <PUBCHEM_FEATURE_SELFOVERLAP>
0

> <PUBCHEM_SHAPE_FINGERPRINT>
20096714 4 18342181046204855728
21015797 1 9073980760702758062
29004967 10 8574705802025886206
5943 1 9750983643631209006

> <PUBCHEM_SHAPE_MULTIPOLES>
88.35
1.97
0.92
0.77
0.01
0.14
0
-0.52
-0.01
-0.01
0
0.01
-0.03
0.2

> <PUBCHEM_SHAPE_SELFOVERLAP>
150.762

> <PUBCHEM_SHAPE_VOLUME>
59.4

> <PUBCHEM_COORDINATE_TYPE>
2
5
10

$$$$
