136396
  -OEChem-10231822433D

 11 10  0     1  0  0  0  0  0999 V2000
    0.7319    1.9062    0.1323 I   0  0  0  0  0  0  0  0  0  0  0  0
   -2.5119    0.0529   -0.1419 I   0  0  0  0  0  0  0  0  0  0  0  0
    0.5463   -0.2109   -0.3725 C   0  0  2  0  0  0  0  0  0  0  0  0
   -0.6272   -0.8465    0.3861 C   0  0  0  0  0  0  0  0  0  0  0  0
    1.8609   -0.9017   -0.0040 C   0  0  0  0  0  0  0  0  0  0  0  0
    0.3885   -0.2903   -1.4547 H   0  0  0  0  0  0  0  0  0  0  0  0
   -0.6795   -1.9170    0.1559 H   0  0  0  0  0  0  0  0  0  0  0  0
   -0.4860   -0.7568    1.4699 H   0  0  0  0  0  0  0  0  0  0  0  0
    1.8200   -1.9652   -0.2634 H   0  0  0  0  0  0  0  0  0  0  0  0
    2.7053   -0.4618   -0.5459 H   0  0  0  0  0  0  0  0  0  0  0  0
    2.0735   -0.8266    1.0684 H   0  0  0  0  0  0  0  0  0  0  0  0
  1  3  1  0  0  0  0
  2  4  1  0  0  0  0
  3  4  1  0  0  0  0
  3  5  1  0  0  0  0
  3  6  1  0  0  0  0
  4  7  1  0  0  0  0
  4  8  1  0  0  0  0
  5  9  1  0  0  0  0
  5 10  1  0  0  0  0
  5 11  1  0  0  0  0
M  END
> <PUBCHEM_COMPOUND_CID>
136396

> <PUBCHEM_CONFORMER_RMSD>
0.4

> <PUBCHEM_CONFORMER_DIVERSEORDER>
1
4
6
2
5
3

> <PUBCHEM_MMFF94_PARTIAL_CHARGES>
4
1 -0.19
2 -0.19
3 0.19
4 0.19

> <PUBCHEM_EFFECTIVE_ROTOR_COUNT>
1

> <PUBCHEM_PHARMACOPHORE_FEATURES>
3
1 1 hydrophobe
1 2 hydrophobe
3 1 3 5 hydrophobe

> <PUBCHEM_HEAVY_ATOM_COUNT>
5

> <PUBCHEM_ATOM_DEF_STEREO_COUNT>
0

> <PUBCHEM_ATOM_UDEF_STEREO_COUNT>
1

> <PUBCHEM_BOND_DEF_STEREO_COUNT>
0

> <PUBCHEM_BOND_UDEF_STEREO_COUNT>
0

> <PUBCHEM_ISOTOPIC_ATOM_COUNT>
0

> <PUBCHEM_COMPONENT_COUNT>
1

> <PUBCHEM_CACTVS_TAUTO_COUNT>
1

> <PUBCHEM_CONFORMER_ID>
000214CC00000001

> <PUBCHEM_MMFF94_ENERGY>
6.9069

> <PUBCHEM_FEATURE_SELFOVERLAP>
15.816

> <PUBCHEM_SHAPE_FINGERPRINT>
16714656 1 18196656189764611055
20096714 4 18196093463265624525
21040471 1 17690843779804862348
23552449 1 17980758242898430448
23552449 11 18336532893764871771
29004967 10 18341613676777819427
5460574 1 10519979361957870271

> <PUBCHEM_SHAPE_MULTIPOLES>
126.77
3.15
1.87
0.78
2.08
0.82
0
-0.05
0.13
-1.11
-0.1
0.07
0.06
0.11

> <PUBCHEM_SHAPE_SELFOVERLAP>
180.276

> <PUBCHEM_SHAPE_VOLUME>
100.5

> <PUBCHEM_COORDINATE_TYPE>
2
5
10

$$$$
